* File: addlay.pex.netlist.pex
* Created: Tue Dec 19 12:17:19 2023
* Program "Calibre xRC"
* Version "v2022.3_33.19"
* Nominal Temperature: 27C
* Circuit Temperature: 27C
* 
.subckt PM_ADDLAYY%CI1 10 14 34 37 39 46 49 54 57
c0 60 0 0.0114763f
c1 59 0 0.020061f
c2 58 0 0.0845435f
c3 54 0 2.96019f
c4 50 0 0.990648f
c5 46 0 2.95817f
c6 42 0 1.61668f
c7 41 0 0.379439f
c8 34 0 2.9709f
c9 30 0 0.381163f
c10 28 0 0.0553087f
c11 27 0 0.288733f
c12 24 0 13.6505f
c13 23 0 0.057473f
c14 22 0 0.438918f
c15 19 0 2.5653f
c16 3 0 1.45182f
r17 54 57 851
r18 52 57 424.5
r19 51 60 3.48803
r20 50 52 5.0467
r21 50 51 396.45
r22 46 49 425.5
r23 44 60 1.27222
r24 44 49 662.5
r25 43 59 0.712658
r26 42 60 3.48803
r27 42 43 663.3
r28 40 59 4.15645
r29 40 41 176.5
r30 37 39 263
r31 34 37 424.5
r32 32 59 4.15645
r33 32 39 400.5
r34 28 30 21.2175
r35 27 28 8.26204
r36 26 27 140
r37 25 58 2.22743
r38 24 41 8.26204
r39 24 25 931.612
r40 22 26 8.26204
r41 22 23 25.3125
r42 19 58 10.4873
r43 18 23 1.90121
r44 18 19 1200
r45 14 16 8.118
r46 10 12 5.802
r47 8 12 8.16635
r48 6 30 13.2552
r49 6 8 0.467192
r50 3 16 8.16635
r51 3 6 0.441
.ends

.subckt PM_ADDLAYY%Y0 16 18 20 32 34 40 42 56 58
c0 62 0 0.0601453f
c1 61 0 0.0609333f
c2 60 0 0.0585693f
c3 56 0 2.51658f
c4 48 0 0.34873f
c5 46 0 0.350093f
c6 40 0 2.53174f
c7 32 0 2.59118f
c8 26 0 0.400408f
c9 24 0 0.35136f
c10 16 0 2.48631f
c11 10 0 3.98063f
r12 56 58 851
r13 54 62 10.4873
r14 54 56 300.5
r15 48 62 2.22743
r16 48 50 13.095
r17 44 61 2.22743
r18 44 46 13.7925
r19 40 42 425.5
r20 38 61 10.4873
r21 38 40 487.5
r22 32 34 424.5
r23 30 32 492.5
r24 26 30 8.26204
r25 26 28 13.32
r26 22 60 2.22743
r27 22 24 7.7175
r28 18 20 206
r29 16 18 639.5
r30 14 60 10.4873
r31 14 16 307
r32 10 50 4.4184
r33 8 46 4.4184
r34 8 10 0.208034
r35 6 28 4.4184
r36 6 8 0.531685
r37 3 24 6.6276
r38 3 6 0.213146
.ends

.subckt PM_ADDLAYY%CI0 12 15 17 24 27 38 41
c0 38 0 2.57852f
c1 32 0 0.227583f
c2 30 0 0.204739f
c3 28 0 0.0452447f
c4 24 0 2.54901f
c5 20 0 0.151559f
c6 18 0 0.0386131f
c7 12 0 2.56971f
c8 8 0 3.72033f
r9 38 41 851
r10 36 41 255.5
r11 32 36 8.26204
r12 32 34 5.7825
r13 28 30 5.2425
r14 24 27 425.5
r15 22 28 8.26204
r16 22 27 493.5
r17 18 20 6.50571
r18 15 17 293
r19 12 15 424.5
r20 10 18 2.0483
r21 10 17 209
r22 8 34 13.2552
r23 6 30 6.6276
r24 6 8 0.338333
r25 3 20 13.2552
r26 3 6 0.642963
.ends

.subckt PM_ADDLAYY%4 19 23 27 28
c0 18 0 0.0495622f
c1 16 0 0.107042f
c2 12 0 0.560196f
c3 10 0 0.0426932f
c4 7 0 0.111601f
c5 6 0 0.473682f
c6 4 0 0.0158219f
r7 28 30 2.538
r8 27 30 2.952
r9 23 25 3.108
r10 19 21 4.392
r11 16 30 5.44423
r12 14 16 0.114381
r13 13 18 0.0248875
r14 12 14 0.0391431
r15 12 13 0.299902
r16 10 25 8.16635
r17 8 18 0.0120166
r18 8 10 0.0527108
r19 6 18 0.0248875
r20 6 7 0.275882
r21 4 21 8.16635
r22 2 7 0.0237696
r23 2 4 0.0144828
.ends

.subckt PM_ADDLAYY%5 33 36 40 44 50 54 66 70
c0 73 0 0.0635943f
c1 72 0 0.0527356f
c2 70 0 0.383278f
c3 66 0 0.597643f
c4 60 0 0.578922f
c5 58 0 0.373175f
c6 54 0 0.812901f
c7 50 0 0.955528f
c8 32 0 0.0625361f
c9 31 0 0.0321152f
c10 30 0 0.0613197f
c11 28 0 0.214585f
c12 24 0 0.148344f
c13 20 0 0.689485f
c14 18 0 0.417075f
c15 14 0 0.174287f
c16 10 0 0.79587f
c17 8 0 0.675916f
c18 2 0 0.413536f
r19 68 73 10.4873
r20 68 70 156
r21 64 73 10.4873
r22 64 66 229.5
r23 60 73 2.22743
r24 60 62 33.0075
r25 56 72 2.22743
r26 56 58 11.7675
r27 52 72 10.4873
r28 52 54 394
r29 48 72 10.4873
r30 48 50 411.5
r31 44 46 3.573
r32 40 42 5.328
r33 36 38 5.9333
r34 33 35 5.8673
r35 28 62 6.6276
r36 26 32 0.0183366
r37 26 28 0.047936
r38 24 38 16.3327
r39 22 32 0.0194295
r40 22 24 0.215347
r41 21 31 0.0132785
r42 20 32 0.0183366
r43 20 21 0.266
r44 18 46 8.16635
r45 16 31 0.0221289
r46 16 18 0.316043
r47 14 35 16.3327
r48 12 31 0.0221289
r49 12 14 0.15505
r50 11 30 0.0232402
r51 10 31 0.0132785
r52 10 11 0.38808
r53 8 42 8.16635
r54 6 30 0.013692
r55 6 8 0.549128
r56 4 58 6.6276
r57 2 30 0.0232402
r58 2 4 0.204064
.ends

.subckt PM_ADDLAYY%6 12 13 16
c0 10 0 0.160022f
c1 7 0 0.130918f
c2 6 0 0.505601f
c3 4 0 0.238095f
r4 16 18 6.102
r5 13 15 4.932
r6 12 15 3.303
r7 10 18 8.16635
r8 8 10 0.174553
r9 6 8 0.0391351
r10 6 7 0.229444
r11 4 15 8.16635
r12 2 7 0.0391351
r13 2 4 0.166362
.ends

.subckt PM_ADDLAYY%7 12 13 16 17
c0 10 0 0.152981f
c1 7 0 0.1462f
c2 6 0 0.638169f
c3 4 0 0.193707f
r4 17 19 3.717
r5 16 19 4.383
r6 13 15 3.987
r7 12 15 4.428
r8 10 19 8.16635
r9 8 10 0.137725
r10 6 8 0.0398589
r11 6 7 0.223039
r12 4 15 8.16635
r13 2 7 0.0398589
r14 2 4 0.181475
.ends

.subckt PM_ADDLAYY%8 22 23 26 30 31
c0 21 0 0.272382f
c1 20 0 0.0387216f
c2 16 0 0.0613685f
c3 12 0 0.332703f
c4 10 0 0.0488044f
c5 7 0 0.0907442f
c6 6 0 0.974318f
c7 4 0 0.0870276f
r8 31 33 2.568
r9 30 33 1.872
r10 26 28 2.832
r11 23 25 2.838
r12 22 25 2.772
r13 16 33 16.3327
r14 14 21 0.0145196
r15 14 16 0.124044
r16 13 20 0.0221739
r17 12 21 0.0224645
r18 12 13 0.204043
r19 10 28 8.16635
r20 8 20 0.0148365
r21 8 10 0.0778358
r22 6 20 0.0221739
r23 6 7 0.680638
r24 4 25 8.16635
r25 2 7 0.0391244
r26 2 4 0.137308
.ends

.subckt PM_ADDLAYY%9 29 33 37 41 51 55
c0 57 0 0.0505366f
c1 55 0 0.910621f
c2 51 0 0.861044f
c3 45 0 0.500197f
c4 28 0 0.0857398f
c5 27 0 0.0844208f
c6 26 0 0.0936896f
c7 24 0 0.274413f
c8 20 0 0.738159f
c9 16 0 0.930153f
c10 14 0 0.244828f
c11 10 0 1.07751f
c12 8 0 0.224406f
c13 4 0 0.351485f
r14 53 57 10.4873
r15 53 55 424
r16 49 57 10.4873
r17 49 51 382
r18 45 57 2.22743
r19 45 47 23.445
r20 41 43 3.132
r21 37 39 2.943
r22 33 35 4.38071
r23 29 31 4.55536
r24 24 47 4.4184
r25 22 28 0.0300255
r26 22 24 0.084
r27 20 43 8.16635
r28 18 28 0.00738322
r29 18 20 0.397062
r30 17 27 0.0296412
r31 16 28 0.0300255
r32 16 17 0.423828
r33 14 35 8.16635
r34 12 27 0.00770322
r35 12 14 0.164883
r36 11 26 0.00884894
r37 10 27 0.0296412
r38 10 11 0.378437
r39 8 31 16.3327
r40 6 26 0.0572602
r41 6 8 0.379717
r42 4 39 8.16635
r43 2 26 0.0572602
r44 2 4 0.490528
.ends

.subckt PM_ADDLAYY%GND 6 60 114 188 314 318 322 323 326 327 330 334 338 342 346
+ 350 351 354 355 358 362 366 370 374 378 379 382 383 386 390 394
c0 186 0 0.707282f
c1 185 0 0.113898f
c2 184 0 0.0663971f
c3 183 0 0.0663971f
c4 182 0 0.0673456f
c5 181 0 0.0854199f
c6 180 0 0.0496564f
c7 179 0 0.707282f
c8 178 0 0.113898f
c9 177 0 0.0663971f
c10 176 0 0.0663971f
c11 175 0 0.0673456f
c12 174 0 0.0854199f
c13 173 0 0.0496564f
c14 172 0 0.707282f
c15 171 0 0.113898f
c16 170 0 0.0663971f
c17 169 0 0.0663971f
c18 168 0 0.0673456f
c19 167 0 0.0854199f
c20 166 0 0.0496564f
c21 162 0 0.184316f
c22 156 0 0.907753f
c23 154 0 0.155761f
c24 150 0 0.293679f
c25 148 0 0.472512f
c26 144 0 0.542394f
c27 142 0 0.543026f
c28 136 0 0.976284f
c29 134 0 0.618956f
c30 128 0 0.782299f
c31 126 0 0.180143f
c32 120 0 0.915809f
c33 118 0 0.185344f
c34 112 0 0.413358f
c35 108 0 0.184316f
c36 102 0 0.907753f
c37 100 0 0.155761f
c38 96 0 0.293679f
c39 94 0 0.472512f
c40 90 0 0.542394f
c41 88 0 0.543026f
c42 82 0 0.976284f
c43 80 0 0.618956f
c44 74 0 0.782299f
c45 72 0 0.180143f
c46 66 0 0.915809f
c47 64 0 0.185344f
c48 58 0 0.413358f
c49 54 0 0.184316f
c50 48 0 0.907753f
c51 46 0 0.155761f
c52 42 0 0.293679f
c53 40 0 0.472512f
c54 36 0 0.542394f
c55 34 0 0.543026f
c56 28 0 0.976284f
c57 26 0 0.618956f
c58 20 0 0.782299f
c59 18 0 0.180143f
c60 12 0 0.915809f
c61 10 0 0.185344f
c62 4 0 0.413358f
r63 394 396 5.80559
r64 390 392 7.4475
r65 386 388 6.43559
r66 383 385 4.2975
r67 382 385 4.2525
r68 379 381 2.8125
r69 378 381 3.0825
r70 374 376 5.94059
r71 370 372 4.86059
r72 366 368 5.80559
r73 362 364 7.4475
r74 358 360 6.43559
r75 355 357 4.2975
r76 354 357 4.2525
r77 351 353 2.817
r78 350 353 3.078
r79 346 348 5.94509
r80 342 344 4.86509
r81 338 340 5.80109
r82 334 336 7.443
r83 330 332 6.44009
r84 327 329 4.302
r85 326 329 4.248
r86 323 325 2.817
r87 322 325 3.078
r88 318 320 5.94509
r89 314 316 4.86509
r90 188 312 0.225
r91 188 303 2.43947
r92 188 300 1.77353
r93 188 291 1.20789
r94 188 288 0.225
r95 188 279 2.43947
r96 188 276 1.77353
r97 188 267 1.20789
r98 188 264 0.225
r99 188 255 2.43947
r100 188 252 1.77353
r101 188 243 1.20789
r102 162 396 16.3327
r103 160 186 0.0250868
r104 160 162 0.234889
r105 159 312 5.44423
r106 157 185 0.0229358
r107 157 159 0.264228
r108 156 186 0.0144641
r109 156 159 0.0922531
r110 154 392 8.16635
r111 152 185 0.0140138
r112 152 154 0.1491
r113 151 184 0.0140914
r114 150 185 0.0229358
r115 150 151 0.0998148
r116 148 388 16.3327
r117 146 184 0.0257048
r118 146 148 0.6096
r119 145 183 0.0140914
r120 144 184 0.0140914
r121 144 145 0.146481
r122 142 385 16.3327
r123 140 183 0.0257048
r124 140 142 0.6096
r125 139 303 4.08318
r126 137 182 0.0142779
r127 137 139 0.203302
r128 136 183 0.0140914
r129 136 139 0.162685
r130 134 381 16.3327
r131 132 182 0.0253936
r132 132 134 0.583268
r133 131 300 4.08318
r134 129 181 0.0177466
r135 129 131 0.0840432
r136 128 182 0.0142779
r137 128 131 0.191636
r138 126 376 16.3327
r139 124 181 0.0202142
r140 124 126 0.204244
r141 123 291 4.08318
r142 121 180 0.0135292
r143 121 123 0.119907
r144 120 181 0.0177466
r145 120 123 0.234414
r146 118 372 16.3327
r147 116 180 0.0266666
r148 116 118 0.274358
r149 112 180 0.0135292
r150 112 114 0.0980864
r151 108 368 16.3327
r152 106 179 0.0250868
r153 106 108 0.234889
r154 105 288 5.44423
r155 103 178 0.0229358
r156 103 105 0.264228
r157 102 179 0.0144641
r158 102 105 0.0922531
r159 100 364 8.16635
r160 98 178 0.0140138
r161 98 100 0.1491
r162 97 177 0.0140914
r163 96 178 0.0229358
r164 96 97 0.0998148
r165 94 360 16.3327
r166 92 177 0.0257048
r167 92 94 0.6096
r168 91 176 0.0140914
r169 90 177 0.0140914
r170 90 91 0.146481
r171 88 357 16.3327
r172 86 176 0.0257048
r173 86 88 0.6096
r174 85 279 4.08318
r175 83 175 0.0142779
r176 83 85 0.203302
r177 82 176 0.0140914
r178 82 85 0.162685
r179 80 353 16.3327
r180 78 175 0.0253936
r181 78 80 0.583268
r182 77 276 4.08318
r183 75 174 0.0177466
r184 75 77 0.0840864
r185 74 175 0.0142779
r186 74 77 0.191593
r187 72 348 16.3327
r188 70 174 0.0202142
r189 70 72 0.204244
r190 69 267 4.08318
r191 67 173 0.0135292
r192 67 69 0.119951
r193 66 174 0.0177466
r194 66 69 0.23437
r195 64 344 16.3327
r196 62 173 0.0266666
r197 62 64 0.274358
r198 58 173 0.0135292
r199 58 60 0.0980864
r200 54 340 16.3327
r201 52 172 0.0250868
r202 52 54 0.234889
r203 51 264 5.44423
r204 49 171 0.0229358
r205 49 51 0.264272
r206 48 172 0.0144641
r207 48 51 0.0922099
r208 46 336 8.16635
r209 44 171 0.0140138
r210 44 46 0.1491
r211 43 170 0.0140914
r212 42 171 0.0229358
r213 42 43 0.0998148
r214 40 332 16.3327
r215 38 170 0.0257048
r216 38 40 0.6096
r217 37 169 0.0140914
r218 36 170 0.0140914
r219 36 37 0.146481
r220 34 329 16.3327
r221 32 169 0.0257048
r222 32 34 0.6096
r223 31 255 4.08318
r224 29 168 0.0142779
r225 29 31 0.203346
r226 28 169 0.0140914
r227 28 31 0.162642
r228 26 325 16.3327
r229 24 168 0.0253936
r230 24 26 0.583268
r231 23 252 4.08318
r232 21 167 0.0177466
r233 21 23 0.0840864
r234 20 168 0.0142779
r235 20 23 0.191593
r236 18 320 16.3327
r237 16 167 0.0202142
r238 16 18 0.204244
r239 15 243 4.08318
r240 13 166 0.0135292
r241 13 15 0.119951
r242 12 167 0.0177466
r243 12 15 0.23437
r244 10 316 16.3327
r245 8 166 0.0266666
r246 8 10 0.274358
r247 4 166 0.0135292
r248 4 6 0.0980864
.ends

.subckt PM_ADDLAYY%VDD 6 54 102 169 183 197 223 227 228 231 232 235 239 243 247
+ 248 251 252 255 259 263 267 268 271 272 275 279
c0 165 0 0.662945f
c1 164 0 0.061963f
c2 163 0 0.0583899f
c3 162 0 0.155987f
c4 161 0 0.0994375f
c5 160 0 0.0603944f
c6 159 0 0.662945f
c7 158 0 0.061963f
c8 157 0 0.0583899f
c9 156 0 0.155987f
c10 155 0 0.0994375f
c11 154 0 0.0603944f
c12 153 0 0.662945f
c13 152 0 0.0697893f
c14 151 0 0.0702332f
c15 150 0 0.187654f
c16 149 0 0.0854933f
c17 148 0 0.0603944f
c18 144 0 0.0609204f
c19 140 0 0.336226f
c20 138 0 0.0686347f
c21 134 0 0.445294f
c22 132 0 0.0845372f
c23 126 0 2.03878f
c24 124 0 0.411394f
c25 116 0 1.33084f
c26 114 0 0.101625f
c27 108 0 0.618982f
c28 106 0 0.0657886f
c29 100 0 0.581642f
c30 96 0 0.0609204f
c31 92 0 0.336226f
c32 90 0 0.0686347f
c33 86 0 0.445294f
c34 84 0 0.0845372f
c35 78 0 2.03878f
c36 76 0 0.411394f
c37 68 0 1.33084f
c38 66 0 0.101625f
c39 60 0 0.618982f
c40 58 0 0.0657886f
c41 52 0 0.581639f
c42 48 0 0.0609204f
c43 44 0 0.336226f
c44 42 0 0.0686347f
c45 38 0 0.504038f
c46 36 0 0.0845372f
c47 30 0 2.29614f
c48 28 0 0.411394f
c49 20 0 1.36443f
c50 18 0 0.101625f
c51 12 0 0.604296f
c52 10 0 0.0657886f
c53 4 0 0.581663f
r54 279 281 5.2403
r55 275 277 2.205
r56 272 274 1.905
r57 271 274 1.905
r58 268 270 2.535
r59 267 270 3.315
r60 263 265 4.89504
r61 259 261 5.2403
r62 255 257 2.205
r63 252 254 1.905
r64 251 254 1.905
r65 248 250 2.538
r66 247 250 3.312
r67 243 245 4.89955
r68 239 241 5.2373
r69 235 237 2.208
r70 232 234 1.908
r71 231 234 1.902
r72 228 230 2.538
r73 227 230 3.312
r74 223 225 4.89955
r75 197 356 1.4625
r76 197 353 2.58197
r77 197 347 2.125
r78 197 342 1.375
r79 197 336 1.44474
r80 183 330 1.4625
r81 183 327 2.58197
r82 183 321 2.125
r83 183 316 1.375
r84 183 310 1.44474
r85 169 304 1.4625
r86 169 301 2.58197
r87 169 295 2.125
r88 169 290 1.375
r89 169 284 1.44474
r90 144 281 16.3327
r91 142 165 0.0253627
r92 142 144 0.0925949
r93 141 164 0.0142966
r94 140 165 0.0142966
r95 140 141 0.115111
r96 138 277 8.16635
r97 136 164 0.0253627
r98 136 138 0.15019
r99 135 163 0.0117439
r100 134 164 0.0142966
r101 134 135 0.100333
r102 132 274 8.16635
r103 130 163 0.0299944
r104 130 132 0.185391
r105 129 356 4.08318
r106 127 162 0.0283965
r107 127 129 0.458306
r108 126 163 0.0117439
r109 126 129 0.135917
r110 124 353 8.16635
r111 122 162 0.00876667
r112 122 124 0.069386
r113 121 347 16.3327
r114 119 342 5.44423
r115 119 121 0.0272222
r116 117 161 0.0191819
r117 117 119 0.160806
r118 116 162 0.0283965
r119 116 121 0.207472
r120 114 270 8.16635
r121 112 161 0.0183454
r122 112 114 0.0613303
r123 111 336 4.08318
r124 109 160 0.0139605
r125 109 111 0.0503611
r126 108 161 0.0191819
r127 108 111 0.18025
r128 106 265 16.3327
r129 104 160 0.0259253
r130 104 106 0.107727
r131 100 160 0.0139605
r132 100 102 0.165278
r133 96 261 16.3327
r134 94 159 0.0253627
r135 94 96 0.0925949
r136 93 158 0.0142966
r137 92 159 0.0142966
r138 92 93 0.115111
r139 90 257 8.16635
r140 88 158 0.0253627
r141 88 90 0.15019
r142 87 157 0.0117439
r143 86 158 0.0142966
r144 86 87 0.100333
r145 84 254 8.16635
r146 82 157 0.0299944
r147 82 84 0.185391
r148 81 330 4.08318
r149 79 156 0.0283965
r150 79 81 0.458306
r151 78 157 0.0117439
r152 78 81 0.135917
r153 76 327 8.16635
r154 74 156 0.00876667
r155 74 76 0.069386
r156 73 321 16.3327
r157 71 316 5.44423
r158 71 73 0.0272222
r159 69 155 0.0191819
r160 69 71 0.160844
r161 68 156 0.0283965
r162 68 73 0.207433
r163 66 250 8.16635
r164 64 155 0.0183454
r165 64 66 0.0613303
r166 63 310 4.08318
r167 61 154 0.0139605
r168 61 63 0.0504
r169 60 155 0.0191819
r170 60 63 0.180211
r171 58 245 16.3327
r172 56 154 0.0259253
r173 56 58 0.107727
r174 52 154 0.0139605
r175 52 54 0.165278
r176 48 241 16.3327
r177 46 153 0.0253627
r178 46 48 0.0925949
r179 45 152 0.0142966
r180 44 153 0.0142966
r181 44 45 0.115111
r182 42 237 8.16635
r183 40 152 0.0253627
r184 40 42 0.15019
r185 39 151 0.0117439
r186 38 152 0.0142966
r187 38 39 0.100333
r188 36 234 8.16635
r189 34 151 0.0299944
r190 34 36 0.185391
r191 33 304 4.08318
r192 31 150 0.0283965
r193 31 33 0.458344
r194 30 151 0.0117439
r195 30 33 0.135878
r196 28 301 8.16635
r197 26 150 0.00876667
r198 26 28 0.069386
r199 25 295 16.3327
r200 23 290 5.44423
r201 23 25 0.0272222
r202 21 149 0.0191819
r203 21 23 0.160844
r204 20 150 0.0283965
r205 20 25 0.207433
r206 18 230 8.16635
r207 16 149 0.0183454
r208 16 18 0.0613303
r209 15 284 4.08318
r210 13 148 0.0139605
r211 13 15 0.0504
r212 12 149 0.0191819
r213 12 15 0.180211
r214 10 225 16.3327
r215 8 148 0.0259253
r216 8 10 0.107727
r217 4 148 0.0139605
r218 4 6 0.165278
.ends

.subckt PM_ADDLAYY%S0 10 14 24
c0 24 0 0.461966f
c1 18 0 0.526715f
c2 3 0 1.42996f
r3 22 24 187
r4 18 22 1.86674
r5 18 20 28.2825
r6 14 16 8.01509
r7 10 12 4.218
r8 8 12 8.16635
r9 6 20 13.2552
r10 6 8 0.446664
r11 3 16 16.3327
r12 3 6 0.533273
.ends

.subckt PM_ADDLAYY%CI2 10 14 40 43 45 52 55 60 63
c0 67 0 0.0114763f
c1 66 0 0.020061f
c2 65 0 0.0862314f
c3 64 0 0.081317f
c4 60 0 2.96019f
c5 56 0 0.990648f
c6 52 0 2.95817f
c7 48 0 1.61668f
c8 47 0 0.433215f
c9 40 0 2.9709f
c10 37 0 0.170794f
c11 36 0 3.55482f
c12 35 0 4.19279f
c13 30 0 0.381163f
c14 28 0 0.0588389f
c15 27 0 0.311642f
c16 25 0 0.0587946f
c17 24 0 0.42316f
c18 22 0 10.0878f
c19 21 0 1.46239f
c20 3 0 1.45182f
r21 60 63 851
r22 58 63 424.5
r23 57 67 3.48803
r24 56 58 5.0467
r25 56 57 396.45
r26 52 55 425.5
r27 50 67 1.27222
r28 50 55 662.5
r29 49 66 0.712658
r30 48 67 3.48803
r31 48 49 663.3
r32 46 66 4.15645
r33 46 47 201.5
r34 43 45 243
r35 40 43 424.5
r36 38 66 4.15645
r37 38 45 420.5
r38 36 47 8.26204
r39 36 37 236.025
r40 35 37 8.26204
r41 34 65 10.4873
r42 34 35 1950
r43 28 30 21.2175
r44 27 28 8.26204
r45 26 27 145
r46 24 26 8.26204
r47 24 25 24.975
r48 23 64 2.22743
r49 22 65 2.22743
r50 22 23 692.1
r51 21 25 8.26204
r52 20 64 10.4873
r53 20 21 680
r54 14 16 8.118
r55 10 12 5.802
r56 8 12 8.16635
r57 6 30 13.2552
r58 6 8 0.467192
r59 3 16 8.16635
r60 3 6 0.441
.ends

.subckt PM_ADDLAYY%X1 14 17 19 30 33 36 39 50 53
c0 50 0 2.68689f
c1 44 0 0.214993f
c2 42 0 0.199656f
c3 40 0 0.0412313f
c4 36 0 2.6832f
c5 30 0 2.67477f
c6 24 0 0.185386f
c7 22 0 0.150256f
c8 20 0 0.0384654f
c9 14 0 2.62041f
c10 10 0 3.89176f
r11 50 53 851
r12 48 53 300.5
r13 44 48 2.15879
r14 44 46 6.24375
r15 40 42 8.15625
r16 36 39 425.5
r17 34 40 2.30767
r18 34 39 543.5
r19 30 33 424.5
r20 28 33 542
r21 24 28 2.05165
r22 24 26 6.60857
r23 20 22 6.37714
r24 17 19 236
r25 14 17 609.5
r26 12 20 2.07708
r27 12 19 303
r28 10 46 13.2552
r29 8 42 13.2552
r30 8 10 0.429074
r31 6 26 13.2552
r32 6 8 0.37934
r33 3 22 13.2552
r34 3 6 0.427778
.ends

.subckt PM_ADDLAYY%Y1 16 18 20 32 34 40 42 56 58
c0 62 0 0.0601521f
c1 61 0 0.0609401f
c2 60 0 0.0585761f
c3 56 0 2.51658f
c4 48 0 0.348492f
c5 46 0 0.349849f
c6 40 0 2.53173f
c7 32 0 2.59118f
c8 26 0 0.400227f
c9 24 0 0.351131f
c10 16 0 2.48631f
c11 10 0 3.98128f
r12 56 58 851
r13 54 62 10.4873
r14 54 56 300.5
r15 48 62 2.22743
r16 48 50 13.1062
r17 44 61 2.22743
r18 44 46 13.7812
r19 40 42 425.5
r20 38 61 10.4873
r21 38 40 487.5
r22 32 34 424.5
r23 30 32 492.5
r24 26 30 8.26204
r25 26 28 13.32
r26 22 60 2.22743
r27 22 24 7.7175
r28 18 20 226
r29 16 18 619.5
r30 14 60 10.4873
r31 14 16 307
r32 10 50 4.4184
r33 8 46 4.4184
r34 8 10 0.208034
r35 6 28 4.4184
r36 6 8 0.531646
r37 3 24 6.6276
r38 3 6 0.213146
.ends

.subckt PM_ADDLAYY%16 19 23 27 28
c0 18 0 0.0495622f
c1 16 0 0.107042f
c2 12 0 0.560196f
c3 10 0 0.0426932f
c4 7 0 0.111601f
c5 6 0 0.473682f
c6 4 0 0.0158219f
r7 28 30 2.538
r8 27 30 2.952
r9 23 25 3.108
r10 19 21 4.392
r11 16 30 5.44423
r12 14 16 0.114381
r13 13 18 0.0248875
r14 12 14 0.0391431
r15 12 13 0.299902
r16 10 25 8.16635
r17 8 18 0.0120166
r18 8 10 0.0527108
r19 6 18 0.0248875
r20 6 7 0.275882
r21 4 21 8.16635
r22 2 7 0.0237696
r23 2 4 0.0144828
.ends

.subckt PM_ADDLAYY%17 33 36 40 44 50 54 66 70
c0 73 0 0.0635943f
c1 72 0 0.0527356f
c2 70 0 0.383278f
c3 66 0 0.597643f
c4 60 0 0.578922f
c5 58 0 0.373175f
c6 54 0 0.812901f
c7 50 0 0.955528f
c8 32 0 0.0625361f
c9 31 0 0.0321152f
c10 30 0 0.0613197f
c11 28 0 0.214585f
c12 24 0 0.148344f
c13 20 0 0.689485f
c14 18 0 0.417075f
c15 14 0 0.174287f
c16 10 0 0.79587f
c17 8 0 0.675916f
c18 2 0 0.413536f
r19 68 73 10.4873
r20 68 70 156
r21 64 73 10.4873
r22 64 66 229.5
r23 60 73 2.22743
r24 60 62 33.0075
r25 56 72 2.22743
r26 56 58 11.7675
r27 52 72 10.4873
r28 52 54 394
r29 48 72 10.4873
r30 48 50 411.5
r31 44 46 3.573
r32 40 42 5.328
r33 36 38 5.9333
r34 33 35 5.8673
r35 28 62 6.6276
r36 26 32 0.0183366
r37 26 28 0.047936
r38 24 38 16.3327
r39 22 32 0.0194295
r40 22 24 0.215347
r41 21 31 0.0132785
r42 20 32 0.0183366
r43 20 21 0.266
r44 18 46 8.16635
r45 16 31 0.0221289
r46 16 18 0.316043
r47 14 35 16.3327
r48 12 31 0.0221289
r49 12 14 0.15505
r50 11 30 0.0232402
r51 10 31 0.0132785
r52 10 11 0.38808
r53 8 42 8.16635
r54 6 30 0.013692
r55 6 8 0.549128
r56 4 58 6.6276
r57 2 30 0.0232402
r58 2 4 0.204064
.ends

.subckt PM_ADDLAYY%18 12 13 16
c0 10 0 0.160022f
c1 7 0 0.130918f
c2 6 0 0.505601f
c3 4 0 0.238095f
r4 16 18 6.102
r5 13 15 4.932
r6 12 15 3.303
r7 10 18 8.16635
r8 8 10 0.174553
r9 6 8 0.0391351
r10 6 7 0.229444
r11 4 15 8.16635
r12 2 7 0.0391351
r13 2 4 0.166362
.ends

.subckt PM_ADDLAYY%19 12 13 16 17
c0 10 0 0.152981f
c1 7 0 0.1462f
c2 6 0 0.638169f
c3 4 0 0.193707f
r4 17 19 3.7125
r5 16 19 4.3875
r6 13 15 3.9825
r7 12 15 4.4325
r8 10 19 8.16635
r9 8 10 0.137725
r10 6 8 0.0398589
r11 6 7 0.223039
r12 4 15 8.16635
r13 2 7 0.0398589
r14 2 4 0.181475
.ends

.subckt PM_ADDLAYY%20 22 23 26 30 31
c0 21 0 0.272382f
c1 20 0 0.0387216f
c2 16 0 0.0613685f
c3 12 0 0.332703f
c4 10 0 0.0488044f
c5 7 0 0.0907442f
c6 6 0 0.974318f
c7 4 0 0.0870276f
r8 31 33 2.565
r9 30 33 1.875
r10 26 28 2.835
r11 23 25 2.835
r12 22 25 2.775
r13 16 33 16.3327
r14 14 21 0.0145196
r15 14 16 0.124044
r16 13 20 0.0221739
r17 12 21 0.0224645
r18 12 13 0.204043
r19 10 28 8.16635
r20 8 20 0.0148365
r21 8 10 0.0778358
r22 6 20 0.0221739
r23 6 7 0.680638
r24 4 25 8.16635
r25 2 7 0.0391244
r26 2 4 0.137308
.ends

.subckt PM_ADDLAYY%21 29 33 37 41 51 55
c0 57 0 0.0505366f
c1 55 0 0.910621f
c2 51 0 0.861044f
c3 45 0 0.500197f
c4 28 0 0.0857398f
c5 27 0 0.0844208f
c6 26 0 0.0936896f
c7 24 0 0.274413f
c8 20 0 0.738159f
c9 16 0 0.930153f
c10 14 0 0.244828f
c11 10 0 1.07751f
c12 8 0 0.224406f
c13 4 0 0.351485f
r14 53 57 10.4873
r15 53 55 424
r16 49 57 10.4873
r17 49 51 382
r18 45 57 2.22743
r19 45 47 23.4562
r20 41 43 3.1275
r21 37 39 2.9475
r22 33 35 4.37627
r23 29 31 4.56044
r24 24 47 4.4184
r25 22 28 0.0300255
r26 22 24 0.0839453
r27 20 43 8.16635
r28 18 28 0.00738322
r29 18 20 0.397062
r30 17 27 0.0296412
r31 16 28 0.0300255
r32 16 17 0.423828
r33 14 35 8.16635
r34 12 27 0.00770322
r35 12 14 0.164883
r36 11 26 0.00884894
r37 10 27 0.0296412
r38 10 11 0.378437
r39 8 31 16.3327
r40 6 26 0.0572602
r41 6 8 0.379717
r42 4 39 8.16635
r43 2 26 0.0572602
r44 2 4 0.490528
.ends

.subckt PM_ADDLAYY%S1 10 14 24
c0 22 0 0.461966f
c1 18 0 0.526715f
c2 3 0 1.42996f
r3 22 24 87
r4 18 22 1.86674
r5 18 20 28.2938
r6 14 16 8.01059
r7 10 12 4.215
r8 8 12 8.16635
r9 6 20 13.2552
r10 6 8 0.446664
r11 3 16 16.3327
r12 3 6 0.533273
.ends

.subckt PM_ADDLAYY%COUT 10 14 20
c0 24 0 0.381163f
c1 22 0 0.0597853f
c2 20 0 0.406972f
c3 3 0 1.45182f
r4 22 24 21.2062
r5 18 22 8.26204
r6 18 20 147
r7 14 16 8.1225
r8 10 12 5.805
r9 8 12 8.16635
r10 6 24 13.2552
r11 6 8 0.467192
r12 3 16 8.16635
r13 3 6 0.441
.ends

.subckt PM_ADDLAYY%X2 14 17 19 30 33 36 39 50 53
c0 50 0 2.68689f
c1 44 0 0.214993f
c2 42 0 0.199656f
c3 40 0 0.0412313f
c4 36 0 2.6832f
c5 30 0 2.67477f
c6 24 0 0.185386f
c7 22 0 0.150256f
c8 20 0 0.0384654f
c9 14 0 2.62041f
c10 10 0 3.89176f
r11 50 53 851
r12 48 53 300.5
r13 44 48 2.15879
r14 44 46 6.24375
r15 40 42 8.15625
r16 36 39 425.5
r17 34 40 2.30767
r18 34 39 543.5
r19 30 33 424.5
r20 28 33 542
r21 24 28 2.05165
r22 24 26 6.62143
r23 20 22 6.36429
r24 17 19 226
r25 14 17 619.5
r26 12 20 2.07708
r27 12 19 303
r28 10 46 13.2552
r29 8 42 13.2552
r30 8 10 0.429074
r31 6 26 13.2552
r32 6 8 0.379383
r33 3 22 13.2552
r34 3 6 0.427778
.ends

.subckt PM_ADDLAYY%Y2 16 18 20 32 34 40 42 56 58
c0 62 0 0.0601453f
c1 61 0 0.0609333f
c2 60 0 0.0585693f
c3 56 0 2.51658f
c4 48 0 0.34873f
c5 46 0 0.350093f
c6 40 0 2.53173f
c7 32 0 2.59118f
c8 26 0 0.400408f
c9 24 0 0.35136f
c10 16 0 2.48631f
c11 10 0 3.98063f
r12 56 58 851
r13 54 62 10.4873
r14 54 56 300.5
r15 48 62 2.22743
r16 48 50 13.1062
r17 44 61 2.22743
r18 44 46 13.7812
r19 40 42 425.5
r20 38 61 10.4873
r21 38 40 487.5
r22 32 34 424.5
r23 30 32 492.5
r24 26 30 8.26204
r25 26 28 13.3313
r26 22 60 2.22743
r27 22 24 7.70625
r28 18 20 251
r29 16 18 594.5
r30 14 60 10.4873
r31 14 16 307
r32 10 50 4.4184
r33 8 46 4.4184
r34 8 10 0.208034
r35 6 28 4.4184
r36 6 8 0.531685
r37 3 24 6.6276
r38 3 6 0.213146
.ends

.subckt PM_ADDLAYY%26 19 23 27 28
c0 18 0 0.0495622f
c1 16 0 0.107042f
c2 12 0 0.560196f
c3 10 0 0.0426932f
c4 7 0 0.111601f
c5 6 0 0.473682f
c6 4 0 0.0158219f
r7 28 30 2.535
r8 27 30 2.955
r9 23 25 3.105
r10 19 21 4.395
r11 16 30 5.44423
r12 14 16 0.114381
r13 13 18 0.0248875
r14 12 14 0.0391431
r15 12 13 0.299902
r16 10 25 8.16635
r17 8 18 0.0120166
r18 8 10 0.0527108
r19 6 18 0.0248875
r20 6 7 0.275882
r21 4 21 8.16635
r22 2 7 0.0237696
r23 2 4 0.0144828
.ends

.subckt PM_ADDLAYY%27 33 36 40 44 50 54 66 70
c0 73 0 0.0635943f
c1 72 0 0.0527356f
c2 70 0 0.383278f
c3 66 0 0.597643f
c4 60 0 0.578922f
c5 58 0 0.373175f
c6 54 0 0.812901f
c7 50 0 0.955528f
c8 32 0 0.0625361f
c9 31 0 0.0321152f
c10 30 0 0.0613197f
c11 28 0 0.214585f
c12 24 0 0.148344f
c13 20 0 0.689485f
c14 18 0 0.417075f
c15 14 0 0.174287f
c16 10 0 0.79587f
c17 8 0 0.675916f
c18 2 0 0.413536f
r19 68 73 10.4873
r20 68 70 156
r21 64 73 10.4873
r22 64 66 229.5
r23 60 73 2.22743
r24 60 62 33.0187
r25 56 72 2.22743
r26 56 58 11.7563
r27 52 72 10.4873
r28 52 54 394
r29 48 72 10.4873
r30 48 50 411.5
r31 44 46 3.5775
r32 40 42 5.3325
r33 36 38 5.9303
r34 33 35 5.8703
r35 28 62 6.6276
r36 26 32 0.0183366
r37 26 28 0.04788
r38 24 38 16.3327
r39 22 32 0.0194295
r40 22 24 0.215347
r41 21 31 0.0132785
r42 20 32 0.0183366
r43 20 21 0.266
r44 18 46 8.16635
r45 16 31 0.0221289
r46 16 18 0.316043
r47 14 35 16.3327
r48 12 31 0.0221289
r49 12 14 0.15505
r50 11 30 0.0232402
r51 10 31 0.0132785
r52 10 11 0.38808
r53 8 42 8.16635
r54 6 30 0.013692
r55 6 8 0.549128
r56 4 58 6.6276
r57 2 30 0.0232402
r58 2 4 0.20412
.ends

.subckt PM_ADDLAYY%28 12 13 16
c0 10 0 0.160022f
c1 7 0 0.130918f
c2 6 0 0.505601f
c3 4 0 0.238095f
r4 16 18 6.0975
r5 13 15 4.9275
r6 12 15 3.3075
r7 10 18 8.16635
r8 8 10 0.174553
r9 6 8 0.0391351
r10 6 7 0.229444
r11 4 15 8.16635
r12 2 7 0.0391351
r13 2 4 0.166362
.ends

.subckt PM_ADDLAYY%29 12 13 16 17
c0 10 0 0.152981f
c1 7 0 0.1462f
c2 6 0 0.638169f
c3 4 0 0.193707f
r4 17 19 3.7125
r5 16 19 4.3875
r6 13 15 3.9825
r7 12 15 4.4325
r8 10 19 8.16635
r9 8 10 0.137725
r10 6 8 0.0398589
r11 6 7 0.223039
r12 4 15 8.16635
r13 2 7 0.0398589
r14 2 4 0.181475
.ends

.subckt PM_ADDLAYY%30 22 23 26 30 31
c0 21 0 0.272382f
c1 20 0 0.0387216f
c2 16 0 0.0613685f
c3 12 0 0.332703f
c4 10 0 0.0488044f
c5 7 0 0.0907442f
c6 6 0 0.974318f
c7 4 0 0.0870276f
r8 31 33 2.565
r9 30 33 1.875
r10 26 28 2.835
r11 23 25 2.835
r12 22 25 2.775
r13 16 33 16.3327
r14 14 21 0.0145196
r15 14 16 0.124044
r16 13 20 0.0221739
r17 12 21 0.0224645
r18 12 13 0.204043
r19 10 28 8.16635
r20 8 20 0.0148365
r21 8 10 0.0778358
r22 6 20 0.0221739
r23 6 7 0.680638
r24 4 25 8.16635
r25 2 7 0.0391244
r26 2 4 0.137308
.ends

.subckt PM_ADDLAYY%31 29 33 37 41 51 55
c0 57 0 0.0505366f
c1 55 0 0.910621f
c2 51 0 0.861044f
c3 45 0 0.500197f
c4 28 0 0.0857398f
c5 27 0 0.0844208f
c6 26 0 0.0936896f
c7 24 0 0.274413f
c8 20 0 0.738159f
c9 16 0 0.930153f
c10 14 0 0.244828f
c11 10 0 1.07751f
c12 8 0 0.224406f
c13 4 0 0.351485f
r14 53 57 10.4873
r15 53 55 424
r16 49 57 10.4873
r17 49 51 382
r18 45 57 2.22743
r19 45 47 23.4562
r20 41 43 3.1275
r21 37 39 2.9475
r22 33 35 4.37627
r23 29 31 4.56044
r24 24 47 4.4184
r25 22 28 0.0300255
r26 22 24 0.0839453
r27 20 43 8.16635
r28 18 28 0.00738322
r29 18 20 0.397062
r30 17 27 0.0296412
r31 16 28 0.0300255
r32 16 17 0.423828
r33 14 35 8.16635
r34 12 27 0.00770322
r35 12 14 0.164883
r36 11 26 0.00884894
r37 10 27 0.0296412
r38 10 11 0.378437
r39 8 31 16.3327
r40 6 26 0.0572602
r41 6 8 0.379717
r42 4 39 8.16635
r43 2 26 0.0572602
r44 2 4 0.490528
.ends

.subckt PM_ADDLAYY%S2 10 14 24
c0 24 0 0.461966f
c1 18 0 0.526715f
c2 3 0 1.42996f
r3 22 24 167
r4 18 22 1.86674
r5 18 20 28.2938
r6 14 16 8.01059
r7 10 12 4.215
r8 8 12 8.16635
r9 6 20 13.2552
r10 6 8 0.446664
r11 3 16 16.3327
r12 3 6 0.533273
.ends

.subckt PM_ADDLAYY%X0 3 6 8 13 16 21 24 29 32
c0 34 0 0.0114763f
c1 33 0 0.0114763f
c2 29 0 2.98888f
c3 25 0 1.25739f
c4 21 0 2.9739f
c5 17 0 0.78514f
c6 13 0 2.96857f
c7 10 0 0.0402838f
c8 9 0 1.19299f
c9 3 0 2.88689f
r10 29 32 851
r11 27 32 419.5
r12 26 34 3.48803
r13 25 27 5.0467
r14 25 26 504.45
r15 21 24 425.5
r16 19 34 1.27222
r17 19 24 657.5
r18 18 33 3.48803
r19 17 34 3.48803
r20 17 18 323.1
r21 13 16 424.5
r22 11 33 1.27222
r23 11 16 658.5
r24 9 33 3.48803
r25 9 10 490.95
r26 6 8 176
r27 3 6 669.5
r28 1 10 5.0467
r29 1 8 419.5
.ends

.subckt PM_ADDLAYY%34 1 2
r0 1 2 3.93
.ends

.subckt PM_ADDLAYY%35 1 2
r0 1 2 5.7
.ends

.subckt PM_ADDLAYY%36 1 2
r0 1 2 5.4
.ends

.subckt PM_ADDLAYY%37 1 2
r0 1 2 3.93
.ends

.subckt PM_ADDLAYY%38 1 2
r0 1 2 5.7
.ends

.subckt PM_ADDLAYY%39 1 2
r0 1 2 5.4
.ends

.subckt PM_ADDLAYY%40 1 2
r0 1 2 3.93
.ends

.subckt PM_ADDLAYY%41 1 2
r0 1 2 5.7
.ends

.subckt PM_ADDLAYY%42 1 2
r0 1 2 5.4
.ends

.subckt PM_ADDLAYY%43 1 2
r0 1 2 8.775
.ends

.subckt PM_ADDLAYY%44 1 2
r0 1 2 5.715
.ends

.subckt PM_ADDLAYY%45 1 2
r0 1 2 6.66
.ends

.subckt PM_ADDLAYY%46 1 2
r0 1 2 8.775
.ends

.subckt PM_ADDLAYY%47 1 2
r0 1 2 5.715
.ends

.subckt PM_ADDLAYY%48 1 2
r0 1 2 6.66
.ends

.subckt PM_ADDLAYY%49 1 2
r0 1 2 8.775
.ends

.subckt PM_ADDLAYY%50 1 2
r0 1 2 5.715
.ends

.subckt PM_ADDLAYY%51 1 2
r0 1 2 6.66
.ends

